 /*--------------------------------*- C++ -*----------------------------------*\
      =========                 |
      \\      /  F ield         | OpenFOAM: The Open Source CFD Toolbox
       \\    /   O peration     | Website:  https://openfoam.org
        \\  /    A nd           | Version:  8
         \\/     M anipulation  |
    \*---------------------------------------------------------------------------*/
    FoamFile
    {
        version     2.0;
        format      ascii;
        class       dictionary;
        object      transportProperties;
    }
    // * * * * * * * * * * * * * * * * * * * * * * * * * * * * * * * * * * * * * //

    transportModel  Newtonian;

    nu              [0 2 -1 0 0 0 0] 3.365e-06;

    area
    {
      area	 (0.0003139341944471355 0);
    }

    us
    {
      us	 (0.0001575076230691928 0);
    }

    profile
    {	     
        t_u 

    (
    (0.0 0.019591776172239398)
(0.01 0.02542369118732422)
(0.02 0.03125560620240904)
(0.03 0.034162153723459966)
(0.04 0.03700899986708163)
(0.05 0.02676096205050168)
(0.06 0.012348575996941395)
(0.07 -0.009119405081088558)
(0.08 -0.04123322682084516)
(0.09 -0.07094416393500727)
(0.1 -0.10377849134325437)
(0.11 -0.1411433469782887)
(0.12 -0.18940833852092057)
(0.13 -0.23167195940463312)
(0.14 -0.27156996063707856)
(0.15 -0.3099755575257715)
(0.16 -0.34081858062998843)
(0.17 -0.36112143791765855)
(0.18 -0.37363030733660224)
(0.19 -0.381039406915515)
// ... 579 like lines cut

    );
    }



    contour
    {	     
        phi_R (
    (-3.141592653589793 0.010231821968354265)
(-3.110018858076328 0.010226342488433354)
(-3.0784450625628628 0.01022105366378252)
(-3.046871267049397 0.01021612434488548)
(-3.015297471535932 0.010214879510326999)
(-2.983723676022467 0.010210425182371188)
(-2.9521498805090016 0.010205769743286486)
(-2.9205760849955364 0.010204482931341819)
(-2.889002289482071 0.010191988044819609)
(-2.8574284939686057 0.010185902107093591)
(-2.8258546984551405 0.010190847581718593)
(-2.7942809029416753 0.010204636507752008)
(-2.76270710742821 0.01023361459155271)
(-2.7311333119147445 0.010254226533701718)
(-2.6995595164012793 0.010282708427422958)
(-2.667985720887814 0.010301801571949057)
(-2.636411925374349 0.010323995611121316)
(-2.604838129860884 0.010331627430076202)
(-2.573264334347418 0.010338399473179287)
(-2.5416905388339535 0.01034313338147487)
// ... 180 like lines cut

    );

    }

    // ************************************************************************* //
    
    